data/Q/Loads.dss
New Load.1 bus1=3105036.3 kV=0.23094010767585033 Vminpu=0.7 Vmaxpu=1.3 model=1 kW=0.0 kvar=0.0 Phases=1
New Load.2 bus1=3105369.1 kV=0.23094010767585033 Vminpu=0.7 Vmaxpu=1.3 model=1 kW=0.0 kvar=0.0 Phases=1
New Load.3 bus1=3106122.2 kV=0.23094010767585033 Vminpu=0.7 Vmaxpu=1.3 model=1 kW=0.0 kvar=0.0 Phases=1
New Load.4 bus1=3106132.1 kV=0.23094010767585033 Vminpu=0.7 Vmaxpu=1.3 model=1 kW=0.0 kvar=0.0 Phases=1
New Load.5 bus1=3106261.2 kV=0.23094010767585033 Vminpu=0.7 Vmaxpu=1.3 model=1 kW=0.0 kvar=0.0 Phases=1
New Load.6 bus1=3106217.1 kV=0.23094010767585033 Vminpu=0.7 Vmaxpu=1.3 model=1 kW=0.0 kvar=0.0 Phases=1
New Load.7 bus1=3105037.1 kV=0.23094010767585033 Vminpu=0.7 Vmaxpu=1.3 model=1 kW=0.0 kvar=0.0 Phases=1
New Load.8 bus1=3106382.1 kV=0.23094010767585033 Vminpu=0.7 Vmaxpu=1.3 model=1 kW=9.902750146000468 kvar=2.010839181240044 Phases=1
New Load.9 bus1=3107586.1.2.3 kV=0.4 Vminpu=0.7 Vmaxpu=1.3 model=1 kW=20.685655564498926 kvar=4.200401513263488 Phases=3
New Load.10 bus1=3107008.1 kV=0.23094010767585033 Vminpu=0.7 Vmaxpu=1.3 model=1 kW=0.7784354117332483 kvar=0.15806805209663297 Phases=1
New Load.11 bus1=3106702.3 kV=0.23094010767585033 Vminpu=0.7 Vmaxpu=1.3 model=1 kW=0.9171530998156766 kvar=0.1862358800448964 Phases=1
New Load.12 bus1=3108028.2 kV=0.23094010767585033 Vminpu=0.7 Vmaxpu=1.3 model=1 kW=3.3696286593302935 kvar=0.6842322823975645 Phases=1
New Load.13 bus1=3108029.2 kV=0.23094010767585033 Vminpu=0.7 Vmaxpu=1.3 model=1 kW=1.8046772410045564 kvar=0.36645534343505526 Phases=1
New Load.14 bus1=3106990.1 kV=0.23094010767585033 Vminpu=0.7 Vmaxpu=1.3 model=1 kW=11.233680007389294 kvar=2.2810960162914604 Phases=1
New Load.15 bus1=3108033.1 kV=0.23094010767585033 Vminpu=0.7 Vmaxpu=1.3 model=1 kW=1.6619191610525232 kvar=0.33746707892531325 Phases=1
New Load.16 bus1=3106644.1 kV=0.23094010767585033 Vminpu=0.7 Vmaxpu=1.3 model=1 kW=4.83357187506285 kvar=0.9814986310284545 Phases=1
New Load.17 bus1=3104899.2 kV=0.23094010767585033 Vminpu=0.7 Vmaxpu=1.3 model=1 kW=1.877402927166466 kvar=0.38122292386078155 Phases=1
New Load.18 bus1=3104937.2 kV=0.23094010767585033 Vminpu=0.7 Vmaxpu=1.3 model=1 kW=3.045056141095123 kvar=0.6183250215661249 Phases=1
New Load.19 bus1=3106486.1 kV=0.23094010767585033 Vminpu=0.7 Vmaxpu=1.3 model=1 kW=6.111660645957802 kvar=1.241025625017744 Phases=1
New Load.20 bus1=3108061.2 kV=0.23094010767585033 Vminpu=0.7 Vmaxpu=1.3 model=1 kW=0.6876469943149086 kvar=0.13963267765458404 Phases=1
New Load.21 bus1=3108062.3 kV=0.23094010767585033 Vminpu=0.7 Vmaxpu=1.3 model=1 kW=3.2228302706158423 kvar=0.654423598201978 Phases=1
New Load.22 bus1=3108063.2 kV=0.23094010767585033 Vminpu=0.7 Vmaxpu=1.3 model=1 kW=1.1716933715870999 kvar=0.23792248670821706 Phases=1
New Load.23 bus1=3108064.2 kV=0.23094010767585033 Vminpu=0.7 Vmaxpu=1.3 model=1 kW=1.872015836224577 kvar=0.3801290283894079 Phases=1
New Load.24 bus1=3108065.2 kV=0.23094010767585033 Vminpu=0.7 Vmaxpu=1.3 model=1 kW=6.01469275212704 kvar=1.221335454371969 Phases=1
New Load.25 bus1=3105367.3 kV=0.23094010767585033 Vminpu=0.7 Vmaxpu=1.3 model=1 kW=2.965596453373474 kvar=0.6021900438029707 Phases=1
New Load.26 bus1=3105036.3 kV=0.23094010767585033 Vminpu=0.7 Vmaxpu=1.3 model=1 kW=5.462515609487462 kvar=1.1092111033548648 Phases=1
New Load.27 bus1=3105369.1 kV=0.23094010767585033 Vminpu=0.7 Vmaxpu=1.3 model=1 kW=3.59319312607626 kvar=0.7296289835803558 Phases=1
New Load.28 bus1=3106129.3 kV=0.23094010767585033 Vminpu=0.7 Vmaxpu=1.3 model=1 kW=1.244419163521792 kvar=0.2526900886120229 Phases=1
New Load.29 bus1=3106971.2 kV=0.23094010767585033 Vminpu=0.7 Vmaxpu=1.3 model=1 kW=2.1090480945444545 kvar=0.4282604812908956 Phases=1
New Load.30 bus1=3105126.1 kV=0.23094010767585033 Vminpu=0.7 Vmaxpu=1.3 model=1 kW=0.199322557507465 kvar=0.04047417156161012 Phases=1
New Load.31 bus1=3105655.1 kV=0.23094010767585033 Vminpu=0.7 Vmaxpu=1.3 model=1 kW=1.9474352378494035 kvar=0.3954435910691632 Phases=1
New Load.32 bus1=3105174.1 kV=0.23094010767585033 Vminpu=0.7 Vmaxpu=1.3 model=1 kW=3.696894787255599 kvar=0.7506865040049537 Phases=1
New Load.33 bus1=3105072.3 kV=0.23094010767585033 Vminpu=0.7 Vmaxpu=1.3 model=1 kW=4.013386476420365 kvar=0.8149528825085448 Phases=1
New Load.34 bus1=3106461.1 kV=0.23094010767585033 Vminpu=0.7 Vmaxpu=1.3 model=1 kW=3.5500963985411467 kvar=0.7208778198093672 Phases=1
New Load.35 bus1=3105801.3 kV=0.23094010767585033 Vminpu=0.7 Vmaxpu=1.3 model=1 kW=2.0807658349899425 kvar=0.42251752354605304 Phases=1
New Load.36 bus1=3105907.1 kV=0.23094010767585033 Vminpu=0.7 Vmaxpu=1.3 model=1 kW=0.12390321207442949 kvar=0.025159620292084624 Phases=1
New Load.37 bus1=3106067.3 kV=0.23094010767585033 Vminpu=0.7 Vmaxpu=1.3 model=1 kW=6.635555657481247 kvar=1.3474070443705313 Phases=1
New Load.38 bus1=3108074.3 kV=0.23094010767585033 Vminpu=0.7 Vmaxpu=1.3 model=1 kW=0.8619353855517186 kvar=0.17502344494318597 Phases=1
New Load.39 bus1=3108075.1 kV=0.23094010767585033 Vminpu=0.7 Vmaxpu=1.3 model=1 kW=1.8181449268056864 kvar=0.3691900736756722 Phases=1
New Load.40 bus1=3106310.2 kV=0.23094010767585033 Vminpu=0.7 Vmaxpu=1.3 model=1 kW=2.4026448719733584 kvar=0.48787784968206865 Phases=1
New Load.41 bus1=3105368.1 kV=0.23094010767585033 Vminpu=0.7 Vmaxpu=1.3 model=1 kW=0.9750643595505791 kvar=0.1979952628822937 Phases=1
New Load.42 bus1=3106122.2 kV=0.23094010767585033 Vminpu=0.7 Vmaxpu=1.3 model=1 kW=2.630249753254526 kvar=0.534094992028784 Phases=1
New Load.43 bus1=3106349.2 kV=0.23094010767585033 Vminpu=0.7 Vmaxpu=1.3 model=1 kW=1.5434030318925842 kvar=0.31340135247456935 Phases=1
New Load.44 bus1=3108076.3 kV=0.23094010767585033 Vminpu=0.7 Vmaxpu=1.3 model=1 kW=20.5414733597975 kvar=4.171124067889559 Phases=1
New Load.45 bus1=3106132.1 kV=0.23094010767585033 Vminpu=0.7 Vmaxpu=1.3 model=1 kW=4.4537816425637216 kvar=0.9043789350953043 Phases=1
New Load.46 bus1=3108077.2 kV=0.23094010767585033 Vminpu=0.7 Vmaxpu=1.3 model=1 kW=2.945394894450985 kvar=0.5980879423054511 Phases=1
New Load.47 bus1=3108078.3 kV=0.23094010767585033 Vminpu=0.7 Vmaxpu=1.3 model=1 kW=1.7817819666191503 kvar=0.3618062596835066 Phases=1
New Load.48 bus1=3106535.1 kV=0.23094010767585033 Vminpu=0.7 Vmaxpu=1.3 model=1 kW=0.7690079704753475 kvar=0.1561537285015979 Phases=1
New Load.49 bus1=3106527.2 kV=0.23094010767585033 Vminpu=0.7 Vmaxpu=1.3 model=1 kW=3.742685124480845 kvar=0.7599846285518915 Phases=1
New Load.50 bus1=3105370.2 kV=0.23094010767585033 Vminpu=0.7 Vmaxpu=1.3 model=1 kW=3.749418891829422 kvar=0.7613519783307144 Phases=1
New Load.51 bus1=3106261.2 kV=0.23094010767585033 Vminpu=0.7 Vmaxpu=1.3 model=1 kW=2.3487739625544677 kvar=0.47693889496833286 Phases=1
New Load.52 bus1=3106260.3 kV=0.23094010767585033 Vminpu=0.7 Vmaxpu=1.3 model=1 kW=1.81141103101873 kvar=0.3678226978163239 Phases=1
New Load.53 bus1=3105940.1 kV=0.23094010767585033 Vminpu=0.7 Vmaxpu=1.3 model=1 kW=1.354854720488087 kvar=0.27511498489596903 Phases=1
New Load.54 bus1=3105371.2 kV=0.23094010767585033 Vminpu=0.7 Vmaxpu=1.3 model=1 kW=2.845733390930089 kvar=0.5778508108837268 Phases=1
New Load.55 bus1=3105782.2 kV=0.23094010767585033 Vminpu=0.7 Vmaxpu=1.3 model=1 kW=2.16561261365348 kvar=0.43974639678058075 Phases=1
New Load.56 bus1=3106217.1 kV=0.23094010767585033 Vminpu=0.7 Vmaxpu=1.3 model=1 kW=2.671999675944571 kvar=0.5425726754117978 Phases=1
New Load.57 bus1=3108079.1 kV=0.23094010767585033 Vminpu=0.7 Vmaxpu=1.3 model=1 kW=6.285394104066562 kvar=1.2763037083286226 Phases=1
New Load.58 bus1=3108086.2 kV=0.23094010767585033 Vminpu=0.7 Vmaxpu=1.3 model=1 kW=0.2535104075152114 kvar=0.05147748380681942 Phases=1
New Load.59 bus1=3108087.2 kV=0.23094010767585033 Vminpu=0.7 Vmaxpu=1.3 model=1 kW=5.775284006030653 kvar=1.1727214350455706 Phases=1
New Load.60 bus1=3108088.2 kV=0.23094010767585033 Vminpu=0.7 Vmaxpu=1.3 model=1 kW=1.0854999165168742 kvar=0.2204201591662398 Phases=1
New Load.61 bus1=3108089.3 kV=0.23094010767585033 Vminpu=0.7 Vmaxpu=1.3 model=1 kW=0.6114353998771177 kvar=0.12415725336326427 Phases=1
New Load.62 bus1=3108090.3 kV=0.23094010767585033 Vminpu=0.7 Vmaxpu=1.3 model=1 kW=1.7790884853673954 kvar=0.36125932498808244 Phases=1
New Load.63 bus1=3108136.2 kV=0.23094010767585033 Vminpu=0.7 Vmaxpu=1.3 model=1 kW=2.045749679648474 kvar=0.41540718994186226 Phases=1
New Load.64 bus1=3108140.2 kV=0.23094010767585033 Vminpu=0.7 Vmaxpu=1.3 model=1 kW=2.7999433105816007 kvar=0.5685527384978394 Phases=1
New Load.65 bus1=3108143.2 kV=0.23094010767585033 Vminpu=0.7 Vmaxpu=1.3 model=1 kW=1.4989594995124043 kvar=0.30437670831560604 Phases=1
New Load.66 bus1=3108145.2 kV=0.23094010767585033 Vminpu=0.7 Vmaxpu=1.3 model=1 kW=2.203322378685083 kvar=0.44740369116072104 Phases=1
New Load.67 bus1=3105037.1 kV=0.23094010767585033 Vminpu=0.7 Vmaxpu=1.3 model=1 kW=4.086112396793438 kvar=0.8297205104928761 Phases=1
New Load.68 bus1=3108160.1 kV=0.23094010767585033 Vminpu=0.7 Vmaxpu=1.3 model=1 kW=3.2457254392284653 kvar=0.6590726604754471 Phases=1
New Load.69 bus1=3108162.1 kV=0.23094010767585033 Vminpu=0.7 Vmaxpu=1.3 model=1 kW=1.981104588345805 kvar=0.4022804442853793 Phases=1
New Load.70 bus1=3105349.3 kV=0.23094010767585033 Vminpu=0.7 Vmaxpu=1.3 model=1 kW=6.6712846458276855 kvar=1.3546621248899666 Phases=1
New Load.71 bus1=3108208.3 kV=0.23094010767585033 Vminpu=0.7 Vmaxpu=1.3 model=1 kW=2.3689755214769566 kvar=0.48104099646585236 Phases=1
New Load.72 bus1=3108209.2 kV=0.23094010767585033 Vminpu=0.7 Vmaxpu=1.3 model=1 kW=0.8821370086933976 kvar=0.1791255594809682 Phases=1
New Load.73 bus1=3108210.2 kV=0.23094010767585033 Vminpu=0.7 Vmaxpu=1.3 model=1 kW=2.8147576501238216 kvar=0.5715609184434601 Phases=1
New Load.74 bus1=3108215.2 kV=0.23094010767585033 Vminpu=0.7 Vmaxpu=1.3 model=1 kW=1.3292659421853295 kvar=0.2699189618465506 Phases=1
New Load.75 bus1=3108220.1 kV=0.23094010767585033 Vminpu=0.7 Vmaxpu=1.3 model=1 kW=4.431678636543268 kvar=0.8998907282968056 Phases=1
New Load.76 bus1=3108221.1 kV=0.23094010767585033 Vminpu=0.7 Vmaxpu=1.3 model=1 kW=1.358895006584909 kvar=0.2759353999793679 Phases=1
New Load.77 bus1=3108224.3 kV=0.23094010767585033 Vminpu=0.7 Vmaxpu=1.3 model=1 kW=3.028894739831076 kvar=0.6150433090714789 Phases=1
New Load.78 bus1=3108231.2 kV=0.23094010767585033 Vminpu=0.7 Vmaxpu=1.3 model=1 kW=3.4369673603230972 kvar=0.6979059888299969 Phases=1
New Load.79 bus1=3108242.2 kV=0.23094010767585033 Vminpu=0.7 Vmaxpu=1.3 model=1 kW=2.592539988222923 kvar=0.5264376976486438 Phases=1
New Load.80 bus1=3105348.3 kV=0.23094010767585033 Vminpu=0.7 Vmaxpu=1.3 model=1 kW=0.4531498300595441 kvar=0.09201599755841762 Phases=1
New Load.81 bus1=3108256.3 kV=0.23094010767585033 Vminpu=0.7 Vmaxpu=1.3 model=1 kW=2.989046067803827 kvar=0.606951691101582 Phases=1
New Load.82 bus1=3108284.2 kV=0.23094010767585033 Vminpu=0.7 Vmaxpu=1.3 model=1 kW=0.9902750146000467 kvar=0.20108391812400442 Phases=1
New Load.83 bus1=3108392.1.2.3 kV=0.4 Vminpu=0.7 Vmaxpu=1.3 model=1 kW=9.902750146000468 kvar=2.010839181240044 Phases=3
New Load.84 bus1=3108424.1 kV=0.23094010767585033 Vminpu=0.7 Vmaxpu=1.3 model=1 kW=2.137330354098968 kvar=0.4340034390357383 Phases=1
New Load.85 bus1=3108425.1 kV=0.23094010767585033 Vminpu=0.7 Vmaxpu=1.3 model=1 kW=0.9912256965954359 kvar=0.201276962336677 Phases=1
New Load.86 bus1=3108434.1 kV=0.23094010767585033 Vminpu=0.7 Vmaxpu=1.3 model=1 kW=4.951375073000234 kvar=1.005419590620022 Phases=1
New Load.87 bus1=3108447.1 kV=0.23094010767585033 Vminpu=0.7 Vmaxpu=1.3 model=1 kW=0.6047015040901617 kvar=0.12278987750391603 Phases=1
New Load.88 bus1=3108450.1 kV=0.23094010767585033 Vminpu=0.7 Vmaxpu=1.3 model=1 kW=2.7285641950535964 kvar=0.554058590901483 Phases=1
New Load.89 bus1=3108452.3 kV=0.23094010767585033 Vminpu=0.7 Vmaxpu=1.3 model=1 kW=1.9999594708616064 kvar=0.4061090914754495 Phases=1
New Load.90 bus1=3108453.3 kV=0.23094010767585033 Vminpu=0.7 Vmaxpu=1.3 model=1 kW=2.351467315367843 kvar=0.47748580358323167 Phases=1
New Load.91 bus1=3108461.2 kV=0.23094010767585033 Vminpu=0.7 Vmaxpu=1.3 model=1 kW=1.4087256299069777 kvar=0.28605393960970477 Phases=1
New Load.92 bus1=3108468.1 kV=0.23094010767585033 Vminpu=0.7 Vmaxpu=1.3 model=1 kW=1.7831287714642172 kvar=0.36207974007148125 Phases=1
New Load.93 bus1=3108469.1 kV=0.23094010767585033 Vminpu=0.7 Vmaxpu=1.3 model=1 kW=2.1602256511499704 kvar=0.4386525273897325 Phases=1
New Load.94 bus1=3108471.1 kV=0.23094010767585033 Vminpu=0.7 Vmaxpu=1.3 model=1 kW=2.5238544823850524 kvar=0.5124905108282367 Phases=1
New Load.95 bus1=3108508.2 kV=0.23094010767585033 Vminpu=0.7 Vmaxpu=1.3 model=1 kW=1.3050239687276388 kvar=0.26499641918510686 Phases=1
New Load.96 bus1=3108534.2 kV=0.23094010767585033 Vminpu=0.7 Vmaxpu=1.3 model=1 kW=3.6982413352239067 kvar=0.7509599322318777 Phases=1
New Load.97 bus1=3108547.2 kV=0.23094010767585033 Vminpu=0.7 Vmaxpu=1.3 model=1 kW=3.533934997277101 kvar=0.7175961073147212 Phases=1
New Load.98 bus1=3108561.1 kV=0.23094010767585033 Vminpu=0.7 Vmaxpu=1.3 model=1 kW=3.4659625511001635 kvar=0.7037937134340154 Phases=1
New Load.99 bus1=3108563.3 kV=0.23094010767585033 Vminpu=0.7 Vmaxpu=1.3 model=1 kW=3.4659625511001635 kvar=0.7037937134340154 Phases=1
New Load.100 bus1=3105012.1 kV=0.23094010767585033 Vminpu=0.7 Vmaxpu=1.3 model=1 kW=3.4659625511001635 kvar=0.7037937134340154 Phases=1
New Load.101 bus1=3106518.3 kV=0.23094010767585033 Vminpu=0.7 Vmaxpu=1.3 model=1 kW=3.4659625511001635 kvar=0.7037937134340154 Phases=1
New Load.102 bus1=3105659.2 kV=0.23094010767585033 Vminpu=0.7 Vmaxpu=1.3 model=1 kW=3.4659625511001635 kvar=0.7037937134340154 Phases=1
New Load.103 bus1=3106926.3 kV=0.23094010767585033 Vminpu=0.7 Vmaxpu=1.3 model=1 kW=3.4659625511001635 kvar=0.7037937134340154 Phases=1
New Load.104 bus1=3106703.1 kV=0.23094010767585033 Vminpu=0.7 Vmaxpu=1.3 model=1 kW=3.4659625511001635 kvar=0.7037937134340154 Phases=1
New Load.105 bus1=3108617.2 kV=0.23094010767585033 Vminpu=0.7 Vmaxpu=1.3 model=1 kW=3.4659625511001635 kvar=0.7037937134340154 Phases=1
New Load.106 bus1=3108636.2 kV=0.23094010767585033 Vminpu=0.7 Vmaxpu=1.3 model=1 kW=3.4659625511001635 kvar=0.7037937134340154 Phases=1
New Load.107 bus1=3108665.2 kV=0.23094010767585033 Vminpu=0.7 Vmaxpu=1.3 model=1 kW=1.9805500292000935 kvar=0.40216783624800884 Phases=1
New Load.108 bus1=3105038.3 kV=0.23094010767585033 Vminpu=0.7 Vmaxpu=1.3 model=1 kW=3.4659625511001635 kvar=0.7037937134340154 Phases=1
New Load.109 bus1=3108671.2 kV=0.23094010767585033 Vminpu=0.7 Vmaxpu=1.3 model=1 kW=2.97082504380014 kvar=0.6032517543720133 Phases=1
